#     FDE rho
    
  CRYSTAL 
    
  PRIMVEC    
  4.02600001531    0.0    0.0    
  0.0    4.02600001531    0.0    
  0.0    0.0    4.02600001531    
  PRIMCOORD    
  2    1    
  Al    3.6911558387    2.60052278942    0.211853032525    
  Al    1.10299107373    0.0456381644815    3.88275710075    
  BEGIN_BLOCK_DATAGRID_2D    
  2d_datagrid_from_pbcpy    
  BEGIN_DATAGRID_2D    
  11    11    
  0.0    0.0    4.02598021879    
  0.0    8.05196043757    0.0    
  8.05196043757    0.0    0.0    
  0.038403696439    0.022199051776    0.0296962330175    0.0158336288207    0.0481411163049    
  0.0383386331269    0.0221991303334    0.029695926906    0.0158338218041    0.0481396664875    
  0.038403696439    0.0140549972422    0.0302520272203    0.0215916715377    0.0293983103722    
  0.0556377554233    0.0141088673028    0.0302516895965    0.0215917840137    0.0293977746712    
  0.0556379731658    0.0140549972422    0.0177882130741    0.0256640299798    0.0118167859827    
  0.0130264797005    0.0301812916124    0.0178295150376    0.0256641836089    0.0118169697716    
  0.0130262353601    0.0301809767417    0.0177882130741    0.0208706424108    0.0126796218327    
  0.0114639400284    0.0189521231427    0.0249679105543    0.0208414138521    0.0126797727076    
  0.0114638410684    0.0189519032527    0.0249678804462    0.0208706424108    0.0169657051429    
  0.0106001927478    0.0219971840591    0.0177386677234    0.0302636277781    0.0169397892616    
  0.0106001343947    0.0219967504938    0.0177388871941    0.0302632687739    0.0169657051429    
  0.0384024333565    0.0222546598023    0.0296747538472    0.0159830584219    0.0483123048885    
  0.0383378517245    0.02225473938    0.0296744488406    0.0159832482589    0.0483108641272    
  0.0384024333565    0.0140556571081    0.0302522390249    0.0215919819853    0.0293989252835    
  0.0556388142034    0.0141095274517    0.0302519014274    0.021592094451    0.0293983895759    
  0.0556390319191    0.0140556571081    0.017787441729    0.0256641931689    0.0118169269942    
  0.0130265982833    0.0301815557729    0.0178287452188    0.0256643467687    0.0118171107876    
  0.0130263539393    0.0301812409206    0.017787441729    0.0208710343879    0.0126798590704    
  0.0114637998734    0.0189517082879    0.0249678084687    0.0208418054096    0.012680009954    
  0.0114637009229    0.0189514883992    0.0249677783447    0.0208710343879    0.0169654995165    
  0.0106000765121    0.0219968890927    0.0177393357978    0.0302637772475    0.0169395841256    
  0.0106000181609    0.021996455528    0.0177395552617    0.0302634182916    0.0169654995165    
  0.038403696439    0.022199051776    0.0296962330175    0.0158336288207    0.0481411163049    
  0.0383386331269    0.0221991303334    0.029695926906    0.0158338218041    0.0481396664875    
  0.038403696439    
  END_DATAGRID_2D    
  END_BLOCK_DATAGRID_2D    