#     vt_rhotot
    
  CRYSTAL 
    
  PRIMVEC    
  4.02600001531    0.0    0.0    
  0.0    4.02600001531    0.0    
  0.0    0.0    4.02600001531    
  PRIMCOORD    
  2    1    
  Al    3.6911558387    2.60052278942    0.211853032525    
  Al    1.10299107373    0.0456381644815    3.88275710075    
  BEGIN_BLOCK_DATAGRID_2D    
  2d_datagrid_from_pbcpy    
  BEGIN_DATAGRID_2D    
  11    11    
  0.0    0.0    4.02598021879    
  0.0    8.05196043757    0.0    
  8.05196043757    0.0    0.0    
  1.14531623456    0.763795933272    1.02102146164    0.400173718134    1.30557212891    
  1.14369001519    0.763797669384    1.02100372164    0.400183392624    1.3055266785    
  1.14531623456    0.352096893087    1.07550568451    0.744155938924    0.929840393712    
  1.55694542555    0.353474370039    1.0754784604    0.744159662528    0.92982787376    
  1.55695021234    0.352096893087    0.522618401732    0.989578400393    0.478521777671    
  0.489351561414    1.01753643691    0.524352574484    0.989595097628    0.478530615674    
  0.489344018918    1.01751668998    0.522618401732    0.747563711321    0.517671961474    
  0.477858645478    0.697975424882    0.842937818039    0.746823971996    0.517677634022    
  0.477856330752    0.697970221998    0.842940099201    0.747563711321    0.6068874153    
  0.415540971081    0.806580623804    0.521533454617    1.03714342532    0.606048811205    
  0.415538659014    0.806564667267    0.521541576173    1.03712192145    0.6068874153    
  1.14625096877    0.765469150772    1.01978833789    0.405377611276    1.30896652703    
  1.14464528613    0.76547086882    1.01977086873    0.405387281234    1.30892119675    
  1.14625096877    0.352119444603    1.07551823109    0.744163556238    0.929858001286    
  1.55696462531    0.353496841001    1.07549100949    0.744167279871    0.929845481262    
  1.55696941114    0.352119444603    0.522587896981    0.989594584517    0.47852773357    
  0.489355305422    1.01754579897    0.524322125233    0.989611280513    0.478536570927    
  0.489347762833    1.01752605167    0.522587896981    0.747574245896    0.517680815788    
  0.477854381716    0.697963658865    0.842937918433    0.746834513171    0.517686488273    
  0.477852066738    0.697958455805    0.842940199137    0.747574245896    0.606881386498    
  0.415539601528    0.806570601917    0.521559048754    1.03715947806    0.606042793471    
  0.415537289217    0.806554645515    0.52156717095    1.03713797664    0.606881386498    
  1.14531623456    0.763795933272    1.02102146164    0.400173718134    1.30557212891    
  1.14369001519    0.763797669384    1.02100372164    0.400183392624    1.3055266785    
  1.14531623456    
  END_DATAGRID_2D    
  END_BLOCK_DATAGRID_2D    